test/resources/V1_13/staticVarCompensatorRoundTripRef.xml
<?xml version="1.0" encoding="UTF-8"?>
<iidm:network xmlns:iidm="http://www.powsybl.org/schema/iidm/1_13" id="svcTestCase" caseDate="2016-06-29T14:54:03.427000+02:00" forecastDistance="0" sourceFormat="code" minimumValidationLevel="STEADY_STATE_HYPOTHESIS">
    <iidm:substation id="S1" country="FR">
        <iidm:voltageLevel id="VL1" nominalV="380" topologyKind="BUS_BREAKER">
            <iidm:busBreakerTopology>
                <iidm:bus id="B1"/>
            </iidm:busBreakerTopology>
            <iidm:generator id="G1" energySource="OTHER" minP="50" maxP="150" voltageRegulatorOn="true" targetP="100" targetV="400" bus="B1" connectableBus="B1">
                <iidm:minMaxReactiveLimits minQ="-1.7976931348623157e+308" maxQ="1.7976931348623157e+308"/>
            </iidm:generator>
        </iidm:voltageLevel>
    </iidm:substation>
    <iidm:substation id="S2" country="FR">
        <iidm:voltageLevel id="VL2" nominalV="380" topologyKind="BUS_BREAKER">
            <iidm:busBreakerTopology>
                <iidm:bus id="B2"/>
            </iidm:busBreakerTopology>
            <iidm:load id="L2" loadType="UNDEFINED" p0="100" q0="50" bus="B2" connectableBus="B2"/>
            <iidm:staticVarCompensator id="SVC2" bMin="0.00020000000000000001" bMax="0.00080000000000000004" voltageSetpoint="390" regulationMode="VOLTAGE" bus="B2" connectableBus="B2">
                <iidm:property name="test" value="test"/>
            </iidm:staticVarCompensator>
        </iidm:voltageLevel>
    </iidm:substation>
    <iidm:line id="L1" r="4" x="200" g1="0" b1="0" g2="0" b2="0" bus1="B1" connectableBus1="B1" voltageLevelId1="VL1" bus2="B2" connectableBus2="B2" voltageLevelId2="VL2"/>
</iidm:network>
